!-Generator IDFEditor 1.50
!-Option SortedOrder

!-NOTE: All comments with '!-' are ignored by the IDFEditor and are generated automatically.
!-      Use '!' comments if they need to be retained when using the IDFEditor.


!-   ===========  ALL OBJECTS IN CLASS: VERSION ===========

Version,
    9.1;                     !- Version Identifier


!-   ===========  ALL OBJECTS IN CLASS: SIMULATIONCONTROL ===========

SimulationControl,
    Yes,                     !- Do Zone Sizing Calculation
    Yes,                     !- Do System Sizing Calculation
    Yes,                     !- Do Plant Sizing Calculation
    No,                      !- Run Simulation for Sizing Periods
    Yes;                     !- Run Simulation for Weather File Run Periods


!-   ===========  ALL OBJECTS IN CLASS: BUILDING ===========

Building,
    -MidriseApartment-ASHRAE 169-2006-5A created: 2018-08-20 14:19:44 -0600,  !- Name
    0,                       !- North Axis {deg}
    City,                    !- Terrain
    0.04,                    !- Loads Convergence Tolerance Value
    0.4,                     !- Temperature Convergence Tolerance Value {deltaC}
    FullExterior,            !- Solar Distribution
    25,                      !- Maximum Number of Warmup Days
    6;                       !- Minimum Number of Warmup Days


!-   ===========  ALL OBJECTS IN CLASS: SHADOWCALCULATION ===========

ShadowCalculation,
    AverageOverDaysInFrequency,  !- Calculation Method
    20,                      !- Calculation Frequency
    15000;                   !- Maximum Figures in Shadow Overlap Calculations


!-   ===========  ALL OBJECTS IN CLASS: SURFACECONVECTIONALGORITHM:INSIDE ===========

SurfaceConvectionAlgorithm:Inside,
    TARP;                    !- Algorithm


!-   ===========  ALL OBJECTS IN CLASS: SURFACECONVECTIONALGORITHM:OUTSIDE ===========

SurfaceConvectionAlgorithm:Outside,
    TARP;                    !- Algorithm


!-   ===========  ALL OBJECTS IN CLASS: HEATBALANCEALGORITHM ===========

HeatBalanceAlgorithm,
    ConductionTransferFunction,  !- Algorithm
    200;                     !- Surface Temperature Upper Limit {C}


!-   ===========  ALL OBJECTS IN CLASS: ZONEAIRHEATBALANCEALGORITHM ===========

ZoneAirHeatBalanceAlgorithm,
    ThirdOrderBackwardDifference;  !- Algorithm


!-   ===========  ALL OBJECTS IN CLASS: ZONEAIRCONTAMINANTBALANCE ===========

ZoneAirContaminantBalance,
    No;                      !- Carbon Dioxide Concentration


!-   ===========  ALL OBJECTS IN CLASS: ZONECAPACITANCEMULTIPLIER:RESEARCHSPECIAL ===========

ZoneCapacitanceMultiplier:ResearchSpecial,
    Zone Capacitance Multiplier Research Special,  !- Name
    ,                        !- Zone or ZoneList Name
    ,                        !- Temperature Capacity Multiplier
    ,                        !- Humidity Capacity Multiplier
    ,                        !- Carbon Dioxide Capacity Multiplier
    ;                        !- Generic Contaminant Capacity Multiplier


!-   ===========  ALL OBJECTS IN CLASS: TIMESTEP ===========

Timestep,
    60;                      !- Number of Timesteps per Hour


!-   ===========  ALL OBJECTS IN CLASS: CONVERGENCELIMITS ===========

ConvergenceLimits,
    1;                       !- Minimum System Timestep {minutes}


!-   ===========  ALL OBJECTS IN CLASS: SITE:LOCATION ===========

Site:Location,
    Anderson County Ap,      !- Name
    34.5,                    !- Latitude {deg}
    -82.72,                  !- Longitude {deg}
    -5,                      !- Time Zone {hr}
    241;                     !- Elevation {m}


!-   ===========  ALL OBJECTS IN CLASS: SIZINGPERIOD:DESIGNDAY ===========

SizingPeriod:DesignDay,
    Camp Mabry Ann Htg 99.6% Condns DB,  !- Name
    1,                       !- Month
    21,                      !- Day of Month
    WinterDesignDay,         !- Day Type
    -3,                      !- Maximum Dry-Bulb Temperature {C}
    0,                       !- Daily Dry-Bulb Temperature Range {deltaC}
    DefaultMultipliers,      !- Dry-Bulb Temperature Range Modifier Type
    ,                        !- Dry-Bulb Temperature Range Modifier Day Schedule Name
    Wetbulb,                 !- Humidity Condition Type
    -3,                      !- Wetbulb or DewPoint at Maximum Dry-Bulb {C}
    ,                        !- Humidity Condition Day Schedule Name
    ,                        !- Humidity Ratio at Maximum Dry-Bulb {kgWater/kgDryAir}
    ,                        !- Enthalpy at Maximum Dry-Bulb {J/kg}
    ,                        !- Daily Wet-Bulb Temperature Range {deltaC}
    98969,                   !- Barometric Pressure {Pa}
    4.5,                     !- Wind Speed {m/s}
    10,                      !- Wind Direction {deg}
    No,                      !- Rain Indicator
    No,                      !- Snow Indicator
    No,                      !- Daylight Saving Time Indicator
    ASHRAEClearSky,          !- Solar Model Indicator
    ,                        !- Beam Solar Day Schedule Name
    ,                        !- Diffuse Solar Day Schedule Name
    ,                        !- ASHRAE Clear Sky Optical Depth for Beam Irradiance (taub) {dimensionless}
    ,                        !- ASHRAE Clear Sky Optical Depth for Diffuse Irradiance (taud) {dimensionless}
    0;                       !- Sky Clearness

SizingPeriod:DesignDay,
    Chicago Ohare Intl Ap Ann Clg .4% Condns DB=>MWB,  !- Name
    7,                       !- Month
    21,                      !- Day of Month
    SummerDesignDay,         !- Day Type
    35.8,                    !- Maximum Dry-Bulb Temperature {C}
    10,                      !- Daily Dry-Bulb Temperature Range {deltaC}
    DefaultMultipliers,      !- Dry-Bulb Temperature Range Modifier Type
    ,                        !- Dry-Bulb Temperature Range Modifier Day Schedule Name
    Wetbulb,                 !- Humidity Condition Type
    25,                      !- Wetbulb or DewPoint at Maximum Dry-Bulb {C}
    ,                        !- Humidity Condition Day Schedule Name
    ,                        !- Humidity Ratio at Maximum Dry-Bulb {kgWater/kgDryAir}
    ,                        !- Enthalpy at Maximum Dry-Bulb {J/kg}
    ,                        !- Daily Wet-Bulb Temperature Range {deltaC}
    98934,                   !- Barometric Pressure {Pa}
    5.2,                     !- Wind Speed {m/s}
    230,                     !- Wind Direction {deg}
    No,                      !- Rain Indicator
    No,                      !- Snow Indicator
    No,                      !- Daylight Saving Time Indicator
    ASHRAETau,               !- Solar Model Indicator
    ,                        !- Beam Solar Day Schedule Name
    ,                        !- Diffuse Solar Day Schedule Name
    0.588,                   !- ASHRAE Clear Sky Optical Depth for Beam Irradiance (taub) {dimensionless}
    2.05;                    !- ASHRAE Clear Sky Optical Depth for Diffuse Irradiance (taud) {dimensionless}


!-   ===========  ALL OBJECTS IN CLASS: RUNPERIOD ===========

RunPeriod,
    Run Period 1,            !- Name
    7,                       !- Begin Month
    24,                      !- Begin Day of Month
    2006,                    !- Begin Year
    7,                       !- End Month
    30,                      !- End Day of Month
    2006,                    !- End Year
    Sunday,                  !- Day of Week for Start Day
    No,                      !- Use Weather File Holidays and Special Days
    No,                      !- Use Weather File Daylight Saving Period
    Yes,                     !- Apply Weekend Holiday Rule
    Yes,                     !- Use Weather File Rain Indicators
    Yes;                     !- Use Weather File Snow Indicators


!-   ===========  ALL OBJECTS IN CLASS: SITE:GROUNDTEMPERATURE:BUILDINGSURFACE ===========

Site:GroundTemperature:BuildingSurface,
    20.25,                   !- January Ground Temperature {C}
    20.17,                   !- February Ground Temperature {C}
    20.19,                   !- March Ground Temperature {C}
    20.28,                   !- April Ground Temperature {C}
    20.41,                   !- May Ground Temperature {C}
    22.7,                    !- June Ground Temperature {C}
    23.15,                   !- July Ground Temperature {C}
    23.26,                   !- August Ground Temperature {C}
    23.29,                   !- September Ground Temperature {C}
    21.04,                   !- October Ground Temperature {C}
    20.65,                   !- November Ground Temperature {C}
    20.43;                   !- December Ground Temperature {C}


!-   ===========  ALL OBJECTS IN CLASS: SITE:WATERMAINSTEMPERATURE ===========

Site:WaterMainsTemperature,
    Correlation,             !- Calculation Method
    ,                        !- Temperature Schedule Name
    9.925,                   !- Annual Average Outdoor Air Temperature {C}
    15;                      !- Maximum Difference In Monthly Average Outdoor Air Temperatures {deltaC}


!-   ===========  ALL OBJECTS IN CLASS: SCHEDULETYPELIMITS ===========

ScheduleTypeLimits,
    G N1 Apartment ZN Thermostat Schedule Type Limits,  !- Name
    0,                       !- Lower Limit Value
    4,                       !- Upper Limit Value
    DISCRETE;                !- Numeric Type

ScheduleTypeLimits,
    Temperature,             !- Name
    ,                        !- Lower Limit Value
    ,                        !- Upper Limit Value
    Continuous,              !- Numeric Type
    temperature;             !- Unit Type

ScheduleTypeLimits,
    G N2 Apartment ZN Thermostat Schedule Type Limits,  !- Name
    0,                       !- Lower Limit Value
    4,                       !- Upper Limit Value
    DISCRETE;                !- Numeric Type

ScheduleTypeLimits,
    G NE Apartment ZN Thermostat Schedule Type Limits,  !- Name
    0,                       !- Lower Limit Value
    4,                       !- Upper Limit Value
    DISCRETE;                !- Numeric Type

ScheduleTypeLimits,
    G NW Apartment ZN Thermostat Schedule Type Limits,  !- Name
    0,                       !- Lower Limit Value
    4,                       !- Upper Limit Value
    DISCRETE;                !- Numeric Type

ScheduleTypeLimits,
    G S1 Apartment ZN Thermostat Schedule Type Limits,  !- Name
    0,                       !- Lower Limit Value
    4,                       !- Upper Limit Value
    DISCRETE;                !- Numeric Type

ScheduleTypeLimits,
    G S2 Apartment ZN Thermostat Schedule Type Limits,  !- Name
    0,                       !- Lower Limit Value
    4,                       !- Upper Limit Value
    DISCRETE;                !- Numeric Type

ScheduleTypeLimits,
    G SW Apartment ZN Thermostat Schedule Type Limits,  !- Name
    0,                       !- Lower Limit Value
    4,                       !- Upper Limit Value
    DISCRETE;                !- Numeric Type

ScheduleTypeLimits,
    M N1 Apartment ZN Thermostat Schedule Type Limits,  !- Name
    0,                       !- Lower Limit Value
    4,                       !- Upper Limit Value
    DISCRETE;                !- Numeric Type

ScheduleTypeLimits,
    M N2 Apartment ZN Thermostat Schedule Type Limits,  !- Name
    0,                       !- Lower Limit Value
    4,                       !- Upper Limit Value
    DISCRETE;                !- Numeric Type

ScheduleTypeLimits,
    M NE Apartment ZN Thermostat Schedule Type Limits,  !- Name
    0,                       !- Lower Limit Value
    4,                       !- Upper Limit Value
    DISCRETE;                !- Numeric Type

ScheduleTypeLimits,
    M NW Apartment ZN Thermostat Schedule Type Limits,  !- Name
    0,                       !- Lower Limit Value
    4,                       !- Upper Limit Value
    DISCRETE;                !- Numeric Type

ScheduleTypeLimits,
    M S1 Apartment ZN Thermostat Schedule Type Limits,  !- Name
    0,                       !- Lower Limit Value
    4,                       !- Upper Limit Value
    DISCRETE;                !- Numeric Type

ScheduleTypeLimits,
    M S2 Apartment ZN Thermostat Schedule Type Limits,  !- Name
    0,                       !- Lower Limit Value
    4,                       !- Upper Limit Value
    DISCRETE;                !- Numeric Type

ScheduleTypeLimits,
    M SE Apartment ZN Thermostat Schedule Type Limits,  !- Name
    0,                       !- Lower Limit Value
    4,                       !- Upper Limit Value
    DISCRETE;                !- Numeric Type

ScheduleTypeLimits,
    M SW Apartment ZN Thermostat Schedule Type Limits,  !- Name
    0,                       !- Lower Limit Value
    4,                       !- Upper Limit Value
    DISCRETE;                !- Numeric Type

ScheduleTypeLimits,
    Office ZN Thermostat Schedule Type Limits,  !- Name
    0,                       !- Lower Limit Value
    4,                       !- Upper Limit Value
    DISCRETE;                !- Numeric Type

ScheduleTypeLimits,
    T N1 Apartment ZN Thermostat Schedule Type Limits,  !- Name
    0,                       !- Lower Limit Value
    4,                       !- Upper Limit Value
    DISCRETE;                !- Numeric Type

ScheduleTypeLimits,
    T N2 Apartment ZN Thermostat Schedule Type Limits,  !- Name
    0,                       !- Lower Limit Value
    4,                       !- Upper Limit Value
    DISCRETE;                !- Numeric Type

ScheduleTypeLimits,
    T NE Apartment ZN Thermostat Schedule Type Limits,  !- Name
    0,                       !- Lower Limit Value
    4,                       !- Upper Limit Value
    DISCRETE;                !- Numeric Type

ScheduleTypeLimits,
    T NW Apartment ZN Thermostat Schedule Type Limits,  !- Name
    0,                       !- Lower Limit Value
    4,                       !- Upper Limit Value
    DISCRETE;                !- Numeric Type

ScheduleTypeLimits,
    T S1 Apartment ZN Thermostat Schedule Type Limits,  !- Name
    0,                       !- Lower Limit Value
    4,                       !- Upper Limit Value
    DISCRETE;                !- Numeric Type

ScheduleTypeLimits,
    T S2 Apartment ZN Thermostat Schedule Type Limits,  !- Name
    0,                       !- Lower Limit Value
    4,                       !- Upper Limit Value
    DISCRETE;                !- Numeric Type

ScheduleTypeLimits,
    T SE Apartment ZN Thermostat Schedule Type Limits,  !- Name
    0,                       !- Lower Limit Value
    4,                       !- Upper Limit Value
    DISCRETE;                !- Numeric Type

ScheduleTypeLimits,
    T SW Apartment ZN Thermostat Schedule Type Limits,  !- Name
    0,                       !- Lower Limit Value
    4,                       !- Upper Limit Value
    DISCRETE;                !- Numeric Type

ScheduleTypeLimits,
    ActivityLevel,           !- Name
    0,                       !- Lower Limit Value
    ,                        !- Upper Limit Value
    Continuous,              !- Numeric Type
    activitylevel;           !- Unit Type

ScheduleTypeLimits,
    Any Number;              !- Name

ScheduleTypeLimits,
    Fractional,              !- Name
    0,                       !- Lower Limit Value
    1,                       !- Upper Limit Value
    Continuous;              !- Numeric Type

ScheduleTypeLimits,
    OnOff,                   !- Name
    0,                       !- Lower Limit Value
    1,                       !- Upper Limit Value
    Discrete,                !- Numeric Type
    availability;            !- Unit Type

ScheduleTypeLimits,
    Temperature Schedule Type Limits,  !- Name
    0,                       !- Lower Limit Value
    100,                     !- Upper Limit Value
    Continuous,              !- Numeric Type
    temperature;             !- Unit Type

ScheduleTypeLimits,
    Temperature Schedule Type Limits 1,  !- Name
    0,                       !- Lower Limit Value
    100,                     !- Upper Limit Value
    Continuous,              !- Numeric Type
    temperature;             !- Unit Type

ScheduleTypeLimits,
    Velocity,                !- Name
    0,                       !- Lower Limit Value
    ,                        !- Upper Limit Value
    Continuous,              !- Numeric Type
    velocity;                !- Unit Type


!-   ===========  ALL OBJECTS IN CLASS: SCHEDULE:DAY:INTERVAL ===========

Schedule:Day:Interval,
    ApartmentMidRise HTGSETP_APT_SCH Default,  !- Name
    Temperature,             !- Schedule Type Limits Name
    No,                      !- Interpolate to Timestep
    24:00,                   !- Time 1 {hh:mm}
    21.7;                    !- Value Until Time 1

Schedule:Day:Interval,
    ApartmentMidRise HTGSETP_APT_SCH Summer Design Day,  !- Name
    Temperature,             !- Schedule Type Limits Name
    No,                      !- Interpolate to Timestep
    24:00,                   !- Time 1 {hh:mm}
    21.7;                    !- Value Until Time 1

Schedule:Day:Interval,
    ApartmentMidRise HTGSETP_APT_SCH Winter Design Day,  !- Name
    Temperature,             !- Schedule Type Limits Name
    No,                      !- Interpolate to Timestep
    24:00,                   !- Time 1 {hh:mm}
    21.7;                    !- Value Until Time 1

Schedule:Day:Interval,
    ApartmentMidRise CLGSETP_APT_SCH Default,  !- Name
    Temperature,             !- Schedule Type Limits Name
    No,                      !- Interpolate to Timestep
    24:00,                   !- Time 1 {hh:mm}
    24.4;                    !- Value Until Time 1

Schedule:Day:Interval,
    ApartmentMidRise CLGSETP_APT_SCH Summer Design Day,  !- Name
    Temperature,             !- Schedule Type Limits Name
    No,                      !- Interpolate to Timestep
    24:00,                   !- Time 1 {hh:mm}
    24.4;                    !- Value Until Time 1

Schedule:Day:Interval,
    ApartmentMidRise CLGSETP_APT_SCH Winter Design Day,  !- Name
    Temperature,             !- Schedule Type Limits Name
    No,                      !- Interpolate to Timestep
    24:00,                   !- Time 1 {hh:mm}
    24.4;                    !- Value Until Time 1

Schedule:Day:Interval,
    ApartmentMidRise HTGSETP_OFF_SCH_NO_OPTIMUM Default,  !- Name
    Temperature,             !- Schedule Type Limits Name
    No,                      !- Interpolate to Timestep
    24:00,                   !- Time 1 {hh:mm}
    15.6;                    !- Value Until Time 1

Schedule:Day:Interval,
    ApartmentMidRise HTGSETP_OFF_SCH_NO_OPTIMUM Wkdy Day,  !- Name
    Temperature,             !- Schedule Type Limits Name
    No,                      !- Interpolate to Timestep
    07:00,                   !- Time 1 {hh:mm}
    15.6,                    !- Value Until Time 1
    17:00,                   !- Time 2 {hh:mm}
    21.1,                    !- Value Until Time 2
    18:00,                   !- Time 3 {hh:mm}
    18.3,                    !- Value Until Time 3
    24:00,                   !- Time 4 {hh:mm}
    15.6;                    !- Value Until Time 4

Schedule:Day:Interval,
    ApartmentMidRise HTGSETP_OFF_SCH_NO_OPTIMUM Summer Design Day,  !- Name
    Temperature,             !- Schedule Type Limits Name
    No,                      !- Interpolate to Timestep
    24:00,                   !- Time 1 {hh:mm}
    15.6;                    !- Value Until Time 1

Schedule:Day:Interval,
    ApartmentMidRise HTGSETP_OFF_SCH_NO_OPTIMUM Winter Design Day,  !- Name
    Temperature,             !- Schedule Type Limits Name
    No,                      !- Interpolate to Timestep
    07:00,                   !- Time 1 {hh:mm}
    15.6,                    !- Value Until Time 1
    08:00,                   !- Time 2 {hh:mm}
    18.3,                    !- Value Until Time 2
    17:00,                   !- Time 3 {hh:mm}
    21.1,                    !- Value Until Time 3
    18:00,                   !- Time 4 {hh:mm}
    18.3,                    !- Value Until Time 4
    24:00,                   !- Time 5 {hh:mm}
    15.6;                    !- Value Until Time 5

Schedule:Day:Interval,
    ApartmentMidRise CLGSETP_OFF_SCH_NO_OPTIMUM Default,  !- Name
    Temperature,             !- Schedule Type Limits Name
    No,                      !- Interpolate to Timestep
    24:00,                   !- Time 1 {hh:mm}
    29.4;                    !- Value Until Time 1

Schedule:Day:Interval,
    ApartmentMidRise CLGSETP_OFF_SCH_NO_OPTIMUM Wkdy Day,  !- Name
    Temperature,             !- Schedule Type Limits Name
    No,                      !- Interpolate to Timestep
    07:00,                   !- Time 1 {hh:mm}
    29.4,                    !- Value Until Time 1
    17:00,                   !- Time 2 {hh:mm}
    23.9,                    !- Value Until Time 2
    18:00,                   !- Time 3 {hh:mm}
    26.7,                    !- Value Until Time 3
    24:00,                   !- Time 4 {hh:mm}
    29.4;                    !- Value Until Time 4

Schedule:Day:Interval,
    ApartmentMidRise CLGSETP_OFF_SCH_NO_OPTIMUM Summer Design Day,  !- Name
    Temperature,             !- Schedule Type Limits Name
    No,                      !- Interpolate to Timestep
    07:00,                   !- Time 1 {hh:mm}
    29.4,                    !- Value Until Time 1
    08:00,                   !- Time 2 {hh:mm}
    26.7,                    !- Value Until Time 2
    17:00,                   !- Time 3 {hh:mm}
    23.9,                    !- Value Until Time 3
    18:00,                   !- Time 4 {hh:mm}
    26.7,                    !- Value Until Time 4
    24:00,                   !- Time 5 {hh:mm}
    29.4;                    !- Value Until Time 5

Schedule:Day:Interval,
    ApartmentMidRise CLGSETP_OFF_SCH_NO_OPTIMUM Winter Design Day,  !- Name
    Temperature,             !- Schedule Type Limits Name
    No,                      !- Interpolate to Timestep
    24:00,                   !- Time 1 {hh:mm}
    29.4;                    !- Value Until Time 1

Schedule:Day:Interval,
    Air Velocity Schedule Default,  !- Name
    Velocity,                !- Schedule Type Limits Name
    No,                      !- Interpolate to Timestep
    24:00,                   !- Time 1 {hh:mm}
    0.2;                     !- Value Until Time 1

Schedule:Day:Interval,
    ApartmentMidRise Activity Schedule Default,  !- Name
    ActivityLevel,           !- Schedule Type Limits Name
    No,                      !- Interpolate to Timestep
    24:00,                   !- Time 1 {hh:mm}
    95;                      !- Value Until Time 1

Schedule:Day:Interval,
    ApartmentMidRise Activity Schedule Summer Design Day,  !- Name
    ActivityLevel,           !- Schedule Type Limits Name
    No,                      !- Interpolate to Timestep
    24:00,                   !- Time 1 {hh:mm}
    95;                      !- Value Until Time 1

Schedule:Day:Interval,
    ApartmentMidRise Activity Schedule Winter Design Day,  !- Name
    ActivityLevel,           !- Schedule Type Limits Name
    No,                      !- Interpolate to Timestep
    24:00,                   !- Time 1 {hh:mm}
    95;                      !- Value Until Time 1

Schedule:Day:Interval,
    ApartmentMidRise All Off Default,  !- Name
    Fractional,              !- Schedule Type Limits Name
    No,                      !- Interpolate to Timestep
    24:00,                   !- Time 1 {hh:mm}
    0.200000002980232;       !- Value Until Time 1

Schedule:Day:Interval,
    ApartmentMidRise All Off Summer Design Day,  !- Name
    Fractional,              !- Schedule Type Limits Name
    No,                      !- Interpolate to Timestep
    24:00,                   !- Time 1 {hh:mm}
    0;                       !- Value Until Time 1

Schedule:Day:Interval,
    ApartmentMidRise All Off Winter Design Day,  !- Name
    Fractional,              !- Schedule Type Limits Name
    No,                      !- Interpolate to Timestep
    24:00,                   !- Time 1 {hh:mm}
    0;                       !- Value Until Time 1

Schedule:Day:Interval,
    ApartmentMidRise All On Default,  !- Name
    ,                        !- Schedule Type Limits Name
    No,                      !- Interpolate to Timestep
    24:00,                   !- Time 1 {hh:mm}
    1;                       !- Value Until Time 1

Schedule:Day:Interval,
    ApartmentMidRise All On Summer Design Day,  !- Name
    ,                        !- Schedule Type Limits Name
    No,                      !- Interpolate to Timestep
    24:00,                   !- Time 1 {hh:mm}
    1;                       !- Value Until Time 1

Schedule:Day:Interval,
    ApartmentMidRise All On Winter Design Day,  !- Name
    ,                        !- Schedule Type Limits Name
    No,                      !- Interpolate to Timestep
    24:00,                   !- Time 1 {hh:mm}
    1;                       !- Value Until Time 1

Schedule:Day:Interval,
    ApartmentMidRise APT_DHW_SCH Default,  !- Name
    Fractional,              !- Schedule Type Limits Name
    No,                      !- Interpolate to Timestep
    01:00,                   !- Time 1 {hh:mm}
    0.08,                    !- Value Until Time 1
    02:00,                   !- Time 2 {hh:mm}
    0.04,                    !- Value Until Time 2
    04:00,                   !- Time 3 {hh:mm}
    0.01,                    !- Value Until Time 3
    05:00,                   !- Time 4 {hh:mm}
    0.04,                    !- Value Until Time 4
    06:00,                   !- Time 5 {hh:mm}
    0.27,                    !- Value Until Time 5
    07:00,                   !- Time 6 {hh:mm}
    0.94,                    !- Value Until Time 6
    08:00,                   !- Time 7 {hh:mm}
    1,                       !- Value Until Time 7
    09:00,                   !- Time 8 {hh:mm}
    0.96,                    !- Value Until Time 8
    10:00,                   !- Time 9 {hh:mm}
    0.84,                    !- Value Until Time 9
    11:00,                   !- Time 10 {hh:mm}
    0.76,                    !- Value Until Time 10
    12:00,                   !- Time 11 {hh:mm}
    0.61,                    !- Value Until Time 11
    13:00,                   !- Time 12 {hh:mm}
    0.53,                    !- Value Until Time 12
    14:00,                   !- Time 13 {hh:mm}
    0.47,                    !- Value Until Time 13
    15:00,                   !- Time 14 {hh:mm}
    0.41,                    !- Value Until Time 14
    16:00,                   !- Time 15 {hh:mm}
    0.47,                    !- Value Until Time 15
    17:00,                   !- Time 16 {hh:mm}
    0.55,                    !- Value Until Time 16
    18:00,                   !- Time 17 {hh:mm}
    0.73,                    !- Value Until Time 17
    19:00,                   !- Time 18 {hh:mm}
    0.86,                    !- Value Until Time 18
    20:00,                   !- Time 19 {hh:mm}
    0.82,                    !- Value Until Time 19
    21:00,                   !- Time 20 {hh:mm}
    0.75,                    !- Value Until Time 20
    22:00,                   !- Time 21 {hh:mm}
    0.61,                    !- Value Until Time 21
    23:00,                   !- Time 22 {hh:mm}
    0.53,                    !- Value Until Time 22
    24:00,                   !- Time 23 {hh:mm}
    0.29;                    !- Value Until Time 23

Schedule:Day:Interval,
    ApartmentMidRise APT_DHW_SCH Summer Design Day,  !- Name
    Fractional,              !- Schedule Type Limits Name
    No,                      !- Interpolate to Timestep
    01:00,                   !- Time 1 {hh:mm}
    0.08,                    !- Value Until Time 1
    02:00,                   !- Time 2 {hh:mm}
    0.04,                    !- Value Until Time 2
    04:00,                   !- Time 3 {hh:mm}
    0.01,                    !- Value Until Time 3
    05:00,                   !- Time 4 {hh:mm}
    0.04,                    !- Value Until Time 4
    06:00,                   !- Time 5 {hh:mm}
    0.27,                    !- Value Until Time 5
    07:00,                   !- Time 6 {hh:mm}
    0.94,                    !- Value Until Time 6
    08:00,                   !- Time 7 {hh:mm}
    1,                       !- Value Until Time 7
    09:00,                   !- Time 8 {hh:mm}
    0.96,                    !- Value Until Time 8
    10:00,                   !- Time 9 {hh:mm}
    0.84,                    !- Value Until Time 9
    11:00,                   !- Time 10 {hh:mm}
    0.76,                    !- Value Until Time 10
    12:00,                   !- Time 11 {hh:mm}
    0.61,                    !- Value Until Time 11
    13:00,                   !- Time 12 {hh:mm}
    0.53,                    !- Value Until Time 12
    14:00,                   !- Time 13 {hh:mm}
    0.47,                    !- Value Until Time 13
    15:00,                   !- Time 14 {hh:mm}
    0.41,                    !- Value Until Time 14
    16:00,                   !- Time 15 {hh:mm}
    0.47,                    !- Value Until Time 15
    17:00,                   !- Time 16 {hh:mm}
    0.55,                    !- Value Until Time 16